Metadata-Version: 2.1
Name: swatmf
Version: 0.0.3
Summary: SWAT-MODFLOW model
Home-page: UNKNOWN
Author: Seonggyu Park
Author-email: <envpsg@gmail.com>
License: UNKNOWN
Description: 
        # SWAT-MODFLOW model
Keywords: python,SWAT-MODFLOW,PEST
Platform: UNKNOWN
Classifier: Development Status :: 1 - Planning
Classifier: Intended Audience :: Education
Classifier: Programming Language :: Python :: 3
Classifier: Operating System :: Unix
Classifier: Operating System :: MacOS :: MacOS X
Classifier: Operating System :: Microsoft :: Windows
Description-Content-Type: text/markdown
